
---------- Begin Simulation Statistics ----------
sim_seconds                                  1.510753                       # Number of seconds simulated
sim_ticks                                1510753206000                       # Number of ticks simulated
final_tick                               1510753206000                       # Number of ticks from beginning of simulation (restored from checkpoints and never reset)
sim_freq                                 1000000000000                       # Frequency of simulated ticks
host_inst_rate                                1443005                       # Simulator instruction rate (inst/s)
host_op_rate                                  1645934                       # Simulator op (including micro ops) rate (op/s)
host_tick_rate                             4609972594                       # Simulator tick rate (ticks/s)
host_mem_usage                                4766424                       # Number of bytes of host memory used
host_seconds                                   327.71                       # Real time elapsed on the host
sim_insts                                   472893173                       # Number of instructions simulated
sim_ops                                     539395980                       # Number of ops (including micro ops) simulated
system.voltage_domain.voltage                       1                       # Voltage in Volts
system.clk_domain.clock                           625                       # Clock period in ticks
system.bootmem.pwrStateResidencyTicks::UNDEFINED 1510753206000                       # Cumulative time (in ticks) in various power states
system.bootmem.bytes_read::cpu0.inst               96                       # Number of bytes read from this memory
system.bootmem.bytes_read::cpu0.data               36                       # Number of bytes read from this memory
system.bootmem.bytes_read::cpu1.inst               48                       # Number of bytes read from this memory
system.bootmem.bytes_read::cpu2.inst               48                       # Number of bytes read from this memory
system.bootmem.bytes_read::cpu3.inst               48                       # Number of bytes read from this memory
system.bootmem.bytes_read::cpu4.inst               48                       # Number of bytes read from this memory
system.bootmem.bytes_read::cpu5.inst               48                       # Number of bytes read from this memory
system.bootmem.bytes_read::cpu6.inst               48                       # Number of bytes read from this memory
system.bootmem.bytes_read::cpu7.inst               48                       # Number of bytes read from this memory
system.bootmem.bytes_read::total                  468                       # Number of bytes read from this memory
system.bootmem.bytes_inst_read::cpu0.inst           96                       # Number of instructions bytes read from this memory
system.bootmem.bytes_inst_read::cpu1.inst           48                       # Number of instructions bytes read from this memory
system.bootmem.bytes_inst_read::cpu2.inst           48                       # Number of instructions bytes read from this memory
system.bootmem.bytes_inst_read::cpu3.inst           48                       # Number of instructions bytes read from this memory
system.bootmem.bytes_inst_read::cpu4.inst           48                       # Number of instructions bytes read from this memory
system.bootmem.bytes_inst_read::cpu5.inst           48                       # Number of instructions bytes read from this memory
system.bootmem.bytes_inst_read::cpu6.inst           48                       # Number of instructions bytes read from this memory
system.bootmem.bytes_inst_read::cpu7.inst           48                       # Number of instructions bytes read from this memory
system.bootmem.bytes_inst_read::total             432                       # Number of instructions bytes read from this memory
system.bootmem.num_reads::cpu0.inst                24                       # Number of read requests responded to by this memory
system.bootmem.num_reads::cpu0.data                 5                       # Number of read requests responded to by this memory
system.bootmem.num_reads::cpu1.inst                12                       # Number of read requests responded to by this memory
system.bootmem.num_reads::cpu2.inst                12                       # Number of read requests responded to by this memory
system.bootmem.num_reads::cpu3.inst                12                       # Number of read requests responded to by this memory
system.bootmem.num_reads::cpu4.inst                12                       # Number of read requests responded to by this memory
system.bootmem.num_reads::cpu5.inst                12                       # Number of read requests responded to by this memory
system.bootmem.num_reads::cpu6.inst                12                       # Number of read requests responded to by this memory
system.bootmem.num_reads::cpu7.inst                12                       # Number of read requests responded to by this memory
system.bootmem.num_reads::total                   113                       # Number of read requests responded to by this memory
system.bootmem.bw_read::cpu0.inst                  64                       # Total read bandwidth from this memory (bytes/s)
system.bootmem.bw_read::cpu0.data                  24                       # Total read bandwidth from this memory (bytes/s)
system.bootmem.bw_read::cpu1.inst                  32                       # Total read bandwidth from this memory (bytes/s)
system.bootmem.bw_read::cpu2.inst                  32                       # Total read bandwidth from this memory (bytes/s)
system.bootmem.bw_read::cpu3.inst                  32                       # Total read bandwidth from this memory (bytes/s)
system.bootmem.bw_read::cpu4.inst                  32                       # Total read bandwidth from this memory (bytes/s)
system.bootmem.bw_read::cpu5.inst                  32                       # Total read bandwidth from this memory (bytes/s)
system.bootmem.bw_read::cpu6.inst                  32                       # Total read bandwidth from this memory (bytes/s)
system.bootmem.bw_read::cpu7.inst                  32                       # Total read bandwidth from this memory (bytes/s)
system.bootmem.bw_read::total                     310                       # Total read bandwidth from this memory (bytes/s)
system.bootmem.bw_inst_read::cpu0.inst             64                       # Instruction read bandwidth from this memory (bytes/s)
system.bootmem.bw_inst_read::cpu1.inst             32                       # Instruction read bandwidth from this memory (bytes/s)
system.bootmem.bw_inst_read::cpu2.inst             32                       # Instruction read bandwidth from this memory (bytes/s)
system.bootmem.bw_inst_read::cpu3.inst             32                       # Instruction read bandwidth from this memory (bytes/s)
system.bootmem.bw_inst_read::cpu4.inst             32                       # Instruction read bandwidth from this memory (bytes/s)
system.bootmem.bw_inst_read::cpu5.inst             32                       # Instruction read bandwidth from this memory (bytes/s)
system.bootmem.bw_inst_read::cpu6.inst             32                       # Instruction read bandwidth from this memory (bytes/s)
system.bootmem.bw_inst_read::cpu7.inst             32                       # Instruction read bandwidth from this memory (bytes/s)
system.bootmem.bw_inst_read::total                286                       # Instruction read bandwidth from this memory (bytes/s)
system.bootmem.bw_total::cpu0.inst                 64                       # Total bandwidth to/from this memory (bytes/s)
system.bootmem.bw_total::cpu0.data                 24                       # Total bandwidth to/from this memory (bytes/s)
system.bootmem.bw_total::cpu1.inst                 32                       # Total bandwidth to/from this memory (bytes/s)
system.bootmem.bw_total::cpu2.inst                 32                       # Total bandwidth to/from this memory (bytes/s)
system.bootmem.bw_total::cpu3.inst                 32                       # Total bandwidth to/from this memory (bytes/s)
system.bootmem.bw_total::cpu4.inst                 32                       # Total bandwidth to/from this memory (bytes/s)
system.bootmem.bw_total::cpu5.inst                 32                       # Total bandwidth to/from this memory (bytes/s)
system.bootmem.bw_total::cpu6.inst                 32                       # Total bandwidth to/from this memory (bytes/s)
system.bootmem.bw_total::cpu7.inst                 32                       # Total bandwidth to/from this memory (bytes/s)
system.bootmem.bw_total::total                    310                       # Total bandwidth to/from this memory (bytes/s)
system.mem_ctrls.pwrStateResidencyTicks::UNDEFINED 1510753206000                       # Cumulative time (in ticks) in various power states
system.mem_ctrls.bytes_read::cpu0.dtb.walker       466304                       # Number of bytes read from this memory
system.mem_ctrls.bytes_read::cpu0.itb.walker       189376                       # Number of bytes read from this memory
system.mem_ctrls.bytes_read::cpu0.inst       24609040                       # Number of bytes read from this memory
system.mem_ctrls.bytes_read::cpu0.data      203985088                       # Number of bytes read from this memory
system.mem_ctrls.bytes_read::pci_ide              512                       # Number of bytes read from this memory
system.mem_ctrls.bytes_read::total          229250320                       # Number of bytes read from this memory
system.mem_ctrls.bytes_inst_read::cpu0.inst     24609040                       # Number of instructions bytes read from this memory
system.mem_ctrls.bytes_inst_read::total      24609040                       # Number of instructions bytes read from this memory
system.mem_ctrls.bytes_written::writebacks    345435648                       # Number of bytes written to this memory
system.mem_ctrls.bytes_written::cpu0.data        20588                       # Number of bytes written to this memory
system.mem_ctrls.bytes_written::total       345456236                       # Number of bytes written to this memory
system.mem_ctrls.num_reads::cpu0.dtb.walker         7286                       # Number of read requests responded to by this memory
system.mem_ctrls.num_reads::cpu0.itb.walker         2959                       # Number of read requests responded to by this memory
system.mem_ctrls.num_reads::cpu0.inst          388900                       # Number of read requests responded to by this memory
system.mem_ctrls.num_reads::cpu0.data         3187274                       # Number of read requests responded to by this memory
system.mem_ctrls.num_reads::pci_ide                 8                       # Number of read requests responded to by this memory
system.mem_ctrls.num_reads::total             3586427                       # Number of read requests responded to by this memory
system.mem_ctrls.num_writes::writebacks       5397432                       # Number of write requests responded to by this memory
system.mem_ctrls.num_writes::cpu0.data           2574                       # Number of write requests responded to by this memory
system.mem_ctrls.num_writes::total            5400006                       # Number of write requests responded to by this memory
system.mem_ctrls.bw_read::cpu0.dtb.walker       308657                       # Total read bandwidth from this memory (bytes/s)
system.mem_ctrls.bw_read::cpu0.itb.walker       125352                       # Total read bandwidth from this memory (bytes/s)
system.mem_ctrls.bw_read::cpu0.inst          16289252                       # Total read bandwidth from this memory (bytes/s)
system.mem_ctrls.bw_read::cpu0.data         135022112                       # Total read bandwidth from this memory (bytes/s)
system.mem_ctrls.bw_read::pci_ide                 339                       # Total read bandwidth from this memory (bytes/s)
system.mem_ctrls.bw_read::total             151745711                       # Total read bandwidth from this memory (bytes/s)
system.mem_ctrls.bw_inst_read::cpu0.inst     16289252                       # Instruction read bandwidth from this memory (bytes/s)
system.mem_ctrls.bw_inst_read::total         16289252                       # Instruction read bandwidth from this memory (bytes/s)
system.mem_ctrls.bw_write::writebacks       228651276                       # Write bandwidth from this memory (bytes/s)
system.mem_ctrls.bw_write::cpu0.data            13628                       # Write bandwidth from this memory (bytes/s)
system.mem_ctrls.bw_write::total            228664903                       # Write bandwidth from this memory (bytes/s)
system.mem_ctrls.bw_total::writebacks       228651276                       # Total bandwidth to/from this memory (bytes/s)
system.mem_ctrls.bw_total::cpu0.dtb.walker       308657                       # Total bandwidth to/from this memory (bytes/s)
system.mem_ctrls.bw_total::cpu0.itb.walker       125352                       # Total bandwidth to/from this memory (bytes/s)
system.mem_ctrls.bw_total::cpu0.inst         16289252                       # Total bandwidth to/from this memory (bytes/s)
system.mem_ctrls.bw_total::cpu0.data        135035739                       # Total bandwidth to/from this memory (bytes/s)
system.mem_ctrls.bw_total::pci_ide                339                       # Total bandwidth to/from this memory (bytes/s)
system.mem_ctrls.bw_total::total            380410615                       # Total bandwidth to/from this memory (bytes/s)
system.mem_ctrls.readReqs                           0                       # Number of read requests accepted
system.mem_ctrls.writeReqs                          0                       # Number of write requests accepted
system.mem_ctrls.readBursts                         0                       # Number of DRAM read bursts, including those serviced by the write queue
system.mem_ctrls.writeBursts                        0                       # Number of DRAM write bursts, including those merged in the write queue
system.mem_ctrls.bytesReadDRAM                      0                       # Total number of bytes read from DRAM
system.mem_ctrls.bytesReadWrQ                       0                       # Total number of bytes read from write queue
system.mem_ctrls.bytesWritten                       0                       # Total number of bytes written to DRAM
system.mem_ctrls.bytesReadSys                       0                       # Total read bytes from the system interface side
system.mem_ctrls.bytesWrittenSys                    0                       # Total written bytes from the system interface side
system.mem_ctrls.servicedByWrQ                      0                       # Number of DRAM read bursts serviced by the write queue
system.mem_ctrls.mergedWrBursts                     0                       # Number of DRAM write bursts merged with an existing one
system.mem_ctrls.neitherReadNorWriteReqs            0                       # Number of requests that are neither read nor write
system.mem_ctrls.perBankRdBursts::0                 0                       # Per bank write bursts
system.mem_ctrls.perBankRdBursts::1                 0                       # Per bank write bursts
system.mem_ctrls.perBankRdBursts::2                 0                       # Per bank write bursts
system.mem_ctrls.perBankRdBursts::3                 0                       # Per bank write bursts
system.mem_ctrls.perBankRdBursts::4                 0                       # Per bank write bursts
system.mem_ctrls.perBankRdBursts::5                 0                       # Per bank write bursts
system.mem_ctrls.perBankRdBursts::6                 0                       # Per bank write bursts
system.mem_ctrls.perBankRdBursts::7                 0                       # Per bank write bursts
system.mem_ctrls.perBankRdBursts::8                 0                       # Per bank write bursts
system.mem_ctrls.perBankRdBursts::9                 0                       # Per bank write bursts
system.mem_ctrls.perBankRdBursts::10                0                       # Per bank write bursts
system.mem_ctrls.perBankRdBursts::11                0                       # Per bank write bursts
system.mem_ctrls.perBankRdBursts::12                0                       # Per bank write bursts
system.mem_ctrls.perBankRdBursts::13                0                       # Per bank write bursts
system.mem_ctrls.perBankRdBursts::14                0                       # Per bank write bursts
system.mem_ctrls.perBankRdBursts::15                0                       # Per bank write bursts
system.mem_ctrls.perBankRdBursts::16                0                       # Per bank write bursts
system.mem_ctrls.perBankRdBursts::17                0                       # Per bank write bursts
system.mem_ctrls.perBankRdBursts::18                0                       # Per bank write bursts
system.mem_ctrls.perBankRdBursts::19                0                       # Per bank write bursts
system.mem_ctrls.perBankRdBursts::20                0                       # Per bank write bursts
system.mem_ctrls.perBankRdBursts::21                0                       # Per bank write bursts
system.mem_ctrls.perBankRdBursts::22                0                       # Per bank write bursts
system.mem_ctrls.perBankRdBursts::23                0                       # Per bank write bursts
system.mem_ctrls.perBankRdBursts::24                0                       # Per bank write bursts
system.mem_ctrls.perBankRdBursts::25                0                       # Per bank write bursts
system.mem_ctrls.perBankRdBursts::26                0                       # Per bank write bursts
system.mem_ctrls.perBankRdBursts::27                0                       # Per bank write bursts
system.mem_ctrls.perBankRdBursts::28                0                       # Per bank write bursts
system.mem_ctrls.perBankRdBursts::29                0                       # Per bank write bursts
system.mem_ctrls.perBankRdBursts::30                0                       # Per bank write bursts
system.mem_ctrls.perBankRdBursts::31                0                       # Per bank write bursts
system.mem_ctrls.perBankWrBursts::0                 0                       # Per bank write bursts
system.mem_ctrls.perBankWrBursts::1                 0                       # Per bank write bursts
system.mem_ctrls.perBankWrBursts::2                 0                       # Per bank write bursts
system.mem_ctrls.perBankWrBursts::3                 0                       # Per bank write bursts
system.mem_ctrls.perBankWrBursts::4                 0                       # Per bank write bursts
system.mem_ctrls.perBankWrBursts::5                 0                       # Per bank write bursts
system.mem_ctrls.perBankWrBursts::6                 0                       # Per bank write bursts
system.mem_ctrls.perBankWrBursts::7                 0                       # Per bank write bursts
system.mem_ctrls.perBankWrBursts::8                 0                       # Per bank write bursts
system.mem_ctrls.perBankWrBursts::9                 0                       # Per bank write bursts
system.mem_ctrls.perBankWrBursts::10                0                       # Per bank write bursts
system.mem_ctrls.perBankWrBursts::11                0                       # Per bank write bursts
system.mem_ctrls.perBankWrBursts::12                0                       # Per bank write bursts
system.mem_ctrls.perBankWrBursts::13                0                       # Per bank write bursts
system.mem_ctrls.perBankWrBursts::14                0                       # Per bank write bursts
system.mem_ctrls.perBankWrBursts::15                0                       # Per bank write bursts
system.mem_ctrls.perBankWrBursts::16                0                       # Per bank write bursts
system.mem_ctrls.perBankWrBursts::17                0                       # Per bank write bursts
system.mem_ctrls.perBankWrBursts::18                0                       # Per bank write bursts
system.mem_ctrls.perBankWrBursts::19                0                       # Per bank write bursts
system.mem_ctrls.perBankWrBursts::20                0                       # Per bank write bursts
system.mem_ctrls.perBankWrBursts::21                0                       # Per bank write bursts
system.mem_ctrls.perBankWrBursts::22                0                       # Per bank write bursts
system.mem_ctrls.perBankWrBursts::23                0                       # Per bank write bursts
system.mem_ctrls.perBankWrBursts::24                0                       # Per bank write bursts
system.mem_ctrls.perBankWrBursts::25                0                       # Per bank write bursts
system.mem_ctrls.perBankWrBursts::26                0                       # Per bank write bursts
system.mem_ctrls.perBankWrBursts::27                0                       # Per bank write bursts
system.mem_ctrls.perBankWrBursts::28                0                       # Per bank write bursts
system.mem_ctrls.perBankWrBursts::29                0                       # Per bank write bursts
system.mem_ctrls.perBankWrBursts::30                0                       # Per bank write bursts
system.mem_ctrls.perBankWrBursts::31                0                       # Per bank write bursts
system.mem_ctrls.numRdRetry                         0                       # Number of times read queue was full causing retry
system.mem_ctrls.numWrRetry                         0                       # Number of times write queue was full causing retry
system.mem_ctrls.totGap                             0                       # Total gap between requests
system.mem_ctrls.readPktSize::0                     0                       # Read request sizes (log2)
system.mem_ctrls.readPktSize::1                     0                       # Read request sizes (log2)
system.mem_ctrls.readPktSize::2                     0                       # Read request sizes (log2)
system.mem_ctrls.readPktSize::3                     0                       # Read request sizes (log2)
system.mem_ctrls.readPktSize::4                     0                       # Read request sizes (log2)
system.mem_ctrls.readPktSize::5                     0                       # Read request sizes (log2)
system.mem_ctrls.readPktSize::6                     0                       # Read request sizes (log2)
system.mem_ctrls.writePktSize::0                    0                       # Write request sizes (log2)
system.mem_ctrls.writePktSize::1                    0                       # Write request sizes (log2)
system.mem_ctrls.writePktSize::2                    0                       # Write request sizes (log2)
system.mem_ctrls.writePktSize::3                    0                       # Write request sizes (log2)
system.mem_ctrls.writePktSize::4                    0                       # Write request sizes (log2)
system.mem_ctrls.writePktSize::5                    0                       # Write request sizes (log2)
system.mem_ctrls.writePktSize::6                    0                       # Write request sizes (log2)
system.mem_ctrls.rdQLenPdf::0                       0                       # What read queue length does an incoming req see
system.mem_ctrls.rdQLenPdf::1                       0                       # What read queue length does an incoming req see
system.mem_ctrls.rdQLenPdf::2                       0                       # What read queue length does an incoming req see
system.mem_ctrls.rdQLenPdf::3                       0                       # What read queue length does an incoming req see
system.mem_ctrls.rdQLenPdf::4                       0                       # What read queue length does an incoming req see
system.mem_ctrls.rdQLenPdf::5                       0                       # What read queue length does an incoming req see
system.mem_ctrls.rdQLenPdf::6                       0                       # What read queue length does an incoming req see
system.mem_ctrls.rdQLenPdf::7                       0                       # What read queue length does an incoming req see
system.mem_ctrls.rdQLenPdf::8                       0                       # What read queue length does an incoming req see
system.mem_ctrls.rdQLenPdf::9                       0                       # What read queue length does an incoming req see
system.mem_ctrls.rdQLenPdf::10                      0                       # What read queue length does an incoming req see
system.mem_ctrls.rdQLenPdf::11                      0                       # What read queue length does an incoming req see
system.mem_ctrls.rdQLenPdf::12                      0                       # What read queue length does an incoming req see
system.mem_ctrls.rdQLenPdf::13                      0                       # What read queue length does an incoming req see
system.mem_ctrls.rdQLenPdf::14                      0                       # What read queue length does an incoming req see
system.mem_ctrls.rdQLenPdf::15                      0                       # What read queue length does an incoming req see
system.mem_ctrls.rdQLenPdf::16                      0                       # What read queue length does an incoming req see
system.mem_ctrls.rdQLenPdf::17                      0                       # What read queue length does an incoming req see
system.mem_ctrls.rdQLenPdf::18                      0                       # What read queue length does an incoming req see
system.mem_ctrls.rdQLenPdf::19                      0                       # What read queue length does an incoming req see
system.mem_ctrls.rdQLenPdf::20                      0                       # What read queue length does an incoming req see
system.mem_ctrls.rdQLenPdf::21                      0                       # What read queue length does an incoming req see
system.mem_ctrls.rdQLenPdf::22                      0                       # What read queue length does an incoming req see
system.mem_ctrls.rdQLenPdf::23                      0                       # What read queue length does an incoming req see
system.mem_ctrls.rdQLenPdf::24                      0                       # What read queue length does an incoming req see
system.mem_ctrls.rdQLenPdf::25                      0                       # What read queue length does an incoming req see
system.mem_ctrls.rdQLenPdf::26                      0                       # What read queue length does an incoming req see
system.mem_ctrls.rdQLenPdf::27                      0                       # What read queue length does an incoming req see
system.mem_ctrls.rdQLenPdf::28                      0                       # What read queue length does an incoming req see
system.mem_ctrls.rdQLenPdf::29                      0                       # What read queue length does an incoming req see
system.mem_ctrls.rdQLenPdf::30                      0                       # What read queue length does an incoming req see
system.mem_ctrls.rdQLenPdf::31                      0                       # What read queue length does an incoming req see
system.mem_ctrls.rdQLenPdf::32                      0                       # What read queue length does an incoming req see
system.mem_ctrls.rdQLenPdf::33                      0                       # What read queue length does an incoming req see
system.mem_ctrls.rdQLenPdf::34                      0                       # What read queue length does an incoming req see
system.mem_ctrls.rdQLenPdf::35                      0                       # What read queue length does an incoming req see
system.mem_ctrls.rdQLenPdf::36                      0                       # What read queue length does an incoming req see
system.mem_ctrls.rdQLenPdf::37                      0                       # What read queue length does an incoming req see
system.mem_ctrls.rdQLenPdf::38                      0                       # What read queue length does an incoming req see
system.mem_ctrls.rdQLenPdf::39                      0                       # What read queue length does an incoming req see
system.mem_ctrls.rdQLenPdf::40                      0                       # What read queue length does an incoming req see
system.mem_ctrls.rdQLenPdf::41                      0                       # What read queue length does an incoming req see
system.mem_ctrls.rdQLenPdf::42                      0                       # What read queue length does an incoming req see
system.mem_ctrls.rdQLenPdf::43                      0                       # What read queue length does an incoming req see
system.mem_ctrls.rdQLenPdf::44                      0                       # What read queue length does an incoming req see
system.mem_ctrls.rdQLenPdf::45                      0                       # What read queue length does an incoming req see
system.mem_ctrls.rdQLenPdf::46                      0                       # What read queue length does an incoming req see
system.mem_ctrls.rdQLenPdf::47                      0                       # What read queue length does an incoming req see
system.mem_ctrls.rdQLenPdf::48                      0                       # What read queue length does an incoming req see
system.mem_ctrls.rdQLenPdf::49                      0                       # What read queue length does an incoming req see
system.mem_ctrls.rdQLenPdf::50                      0                       # What read queue length does an incoming req see
system.mem_ctrls.rdQLenPdf::51                      0                       # What read queue length does an incoming req see
system.mem_ctrls.rdQLenPdf::52                      0                       # What read queue length does an incoming req see
system.mem_ctrls.rdQLenPdf::53                      0                       # What read queue length does an incoming req see
system.mem_ctrls.rdQLenPdf::54                      0                       # What read queue length does an incoming req see
system.mem_ctrls.rdQLenPdf::55                      0                       # What read queue length does an incoming req see
system.mem_ctrls.rdQLenPdf::56                      0                       # What read queue length does an incoming req see
system.mem_ctrls.rdQLenPdf::57                      0                       # What read queue length does an incoming req see
system.mem_ctrls.rdQLenPdf::58                      0                       # What read queue length does an incoming req see
system.mem_ctrls.rdQLenPdf::59                      0                       # What read queue length does an incoming req see
system.mem_ctrls.rdQLenPdf::60                      0                       # What read queue length does an incoming req see
system.mem_ctrls.rdQLenPdf::61                      0                       # What read queue length does an incoming req see
system.mem_ctrls.rdQLenPdf::62                      0                       # What read queue length does an incoming req see
system.mem_ctrls.rdQLenPdf::63                      0                       # What read queue length does an incoming req see
system.mem_ctrls.wrQLenPdf::0                       0                       # What write queue length does an incoming req see
system.mem_ctrls.wrQLenPdf::1                       0                       # What write queue length does an incoming req see
system.mem_ctrls.wrQLenPdf::2                       0                       # What write queue length does an incoming req see
system.mem_ctrls.wrQLenPdf::3                       0                       # What write queue length does an incoming req see
system.mem_ctrls.wrQLenPdf::4                       0                       # What write queue length does an incoming req see
system.mem_ctrls.wrQLenPdf::5                       0                       # What write queue length does an incoming req see
system.mem_ctrls.wrQLenPdf::6                       0                       # What write queue length does an incoming req see
system.mem_ctrls.wrQLenPdf::7                       0                       # What write queue length does an incoming req see
system.mem_ctrls.wrQLenPdf::8                       0                       # What write queue length does an incoming req see
system.mem_ctrls.wrQLenPdf::9                       0                       # What write queue length does an incoming req see
system.mem_ctrls.wrQLenPdf::10                      0                       # What write queue length does an incoming req see
system.mem_ctrls.wrQLenPdf::11                      0                       # What write queue length does an incoming req see
system.mem_ctrls.wrQLenPdf::12                      0                       # What write queue length does an incoming req see
system.mem_ctrls.wrQLenPdf::13                      0                       # What write queue length does an incoming req see
system.mem_ctrls.wrQLenPdf::14                      0                       # What write queue length does an incoming req see
system.mem_ctrls.wrQLenPdf::15                      0                       # What write queue length does an incoming req see
system.mem_ctrls.wrQLenPdf::16                      0                       # What write queue length does an incoming req see
system.mem_ctrls.wrQLenPdf::17                      0                       # What write queue length does an incoming req see
system.mem_ctrls.wrQLenPdf::18                      0                       # What write queue length does an incoming req see
system.mem_ctrls.wrQLenPdf::19                      0                       # What write queue length does an incoming req see
system.mem_ctrls.wrQLenPdf::20                      0                       # What write queue length does an incoming req see
system.mem_ctrls.wrQLenPdf::21                      0                       # What write queue length does an incoming req see
system.mem_ctrls.wrQLenPdf::22                      0                       # What write queue length does an incoming req see
system.mem_ctrls.wrQLenPdf::23                      0                       # What write queue length does an incoming req see
system.mem_ctrls.wrQLenPdf::24                      0                       # What write queue length does an incoming req see
system.mem_ctrls.wrQLenPdf::25                      0                       # What write queue length does an incoming req see
system.mem_ctrls.wrQLenPdf::26                      0                       # What write queue length does an incoming req see
system.mem_ctrls.wrQLenPdf::27                      0                       # What write queue length does an incoming req see
system.mem_ctrls.wrQLenPdf::28                      0                       # What write queue length does an incoming req see
system.mem_ctrls.wrQLenPdf::29                      0                       # What write queue length does an incoming req see
system.mem_ctrls.wrQLenPdf::30                      0                       # What write queue length does an incoming req see
system.mem_ctrls.wrQLenPdf::31                      0                       # What write queue length does an incoming req see
system.mem_ctrls.wrQLenPdf::32                      0                       # What write queue length does an incoming req see
system.mem_ctrls.wrQLenPdf::33                      0                       # What write queue length does an incoming req see
system.mem_ctrls.wrQLenPdf::34                      0                       # What write queue length does an incoming req see
system.mem_ctrls.wrQLenPdf::35                      0                       # What write queue length does an incoming req see
system.mem_ctrls.wrQLenPdf::36                      0                       # What write queue length does an incoming req see
system.mem_ctrls.wrQLenPdf::37                      0                       # What write queue length does an incoming req see
system.mem_ctrls.wrQLenPdf::38                      0                       # What write queue length does an incoming req see
system.mem_ctrls.wrQLenPdf::39                      0                       # What write queue length does an incoming req see
system.mem_ctrls.wrQLenPdf::40                      0                       # What write queue length does an incoming req see
system.mem_ctrls.wrQLenPdf::41                      0                       # What write queue length does an incoming req see
system.mem_ctrls.wrQLenPdf::42                      0                       # What write queue length does an incoming req see
system.mem_ctrls.wrQLenPdf::43                      0                       # What write queue length does an incoming req see
system.mem_ctrls.wrQLenPdf::44                      0                       # What write queue length does an incoming req see
system.mem_ctrls.wrQLenPdf::45                      0                       # What write queue length does an incoming req see
system.mem_ctrls.wrQLenPdf::46                      0                       # What write queue length does an incoming req see
system.mem_ctrls.wrQLenPdf::47                      0                       # What write queue length does an incoming req see
system.mem_ctrls.wrQLenPdf::48                      0                       # What write queue length does an incoming req see
system.mem_ctrls.wrQLenPdf::49                      0                       # What write queue length does an incoming req see
system.mem_ctrls.wrQLenPdf::50                      0                       # What write queue length does an incoming req see
system.mem_ctrls.wrQLenPdf::51                      0                       # What write queue length does an incoming req see
system.mem_ctrls.wrQLenPdf::52                      0                       # What write queue length does an incoming req see
system.mem_ctrls.wrQLenPdf::53                      0                       # What write queue length does an incoming req see
system.mem_ctrls.wrQLenPdf::54                      0                       # What write queue length does an incoming req see
system.mem_ctrls.wrQLenPdf::55                      0                       # What write queue length does an incoming req see
system.mem_ctrls.wrQLenPdf::56                      0                       # What write queue length does an incoming req see
system.mem_ctrls.wrQLenPdf::57                      0                       # What write queue length does an incoming req see
system.mem_ctrls.wrQLenPdf::58                      0                       # What write queue length does an incoming req see
system.mem_ctrls.wrQLenPdf::59                      0                       # What write queue length does an incoming req see
system.mem_ctrls.wrQLenPdf::60                      0                       # What write queue length does an incoming req see
system.mem_ctrls.wrQLenPdf::61                      0                       # What write queue length does an incoming req see
system.mem_ctrls.wrQLenPdf::62                      0                       # What write queue length does an incoming req see
system.mem_ctrls.wrQLenPdf::63                      0                       # What write queue length does an incoming req see
system.mem_ctrls.wrQLenPdf::64                      0                       # What write queue length does an incoming req see
system.mem_ctrls.wrQLenPdf::65                      0                       # What write queue length does an incoming req see
system.mem_ctrls.wrQLenPdf::66                      0                       # What write queue length does an incoming req see
system.mem_ctrls.wrQLenPdf::67                      0                       # What write queue length does an incoming req see
system.mem_ctrls.wrQLenPdf::68                      0                       # What write queue length does an incoming req see
system.mem_ctrls.wrQLenPdf::69                      0                       # What write queue length does an incoming req see
system.mem_ctrls.wrQLenPdf::70                      0                       # What write queue length does an incoming req see
system.mem_ctrls.wrQLenPdf::71                      0                       # What write queue length does an incoming req see
system.mem_ctrls.wrQLenPdf::72                      0                       # What write queue length does an incoming req see
system.mem_ctrls.wrQLenPdf::73                      0                       # What write queue length does an incoming req see
system.mem_ctrls.wrQLenPdf::74                      0                       # What write queue length does an incoming req see
system.mem_ctrls.wrQLenPdf::75                      0                       # What write queue length does an incoming req see
system.mem_ctrls.wrQLenPdf::76                      0                       # What write queue length does an incoming req see
system.mem_ctrls.wrQLenPdf::77                      0                       # What write queue length does an incoming req see
system.mem_ctrls.wrQLenPdf::78                      0                       # What write queue length does an incoming req see
system.mem_ctrls.wrQLenPdf::79                      0                       # What write queue length does an incoming req see
system.mem_ctrls.wrQLenPdf::80                      0                       # What write queue length does an incoming req see
system.mem_ctrls.wrQLenPdf::81                      0                       # What write queue length does an incoming req see
system.mem_ctrls.wrQLenPdf::82                      0                       # What write queue length does an incoming req see
system.mem_ctrls.wrQLenPdf::83                      0                       # What write queue length does an incoming req see
system.mem_ctrls.wrQLenPdf::84                      0                       # What write queue length does an incoming req see
system.mem_ctrls.wrQLenPdf::85                      0                       # What write queue length does an incoming req see
system.mem_ctrls.wrQLenPdf::86                      0                       # What write queue length does an incoming req see
system.mem_ctrls.wrQLenPdf::87                      0                       # What write queue length does an incoming req see
system.mem_ctrls.wrQLenPdf::88                      0                       # What write queue length does an incoming req see
system.mem_ctrls.wrQLenPdf::89                      0                       # What write queue length does an incoming req see
system.mem_ctrls.wrQLenPdf::90                      0                       # What write queue length does an incoming req see
system.mem_ctrls.wrQLenPdf::91                      0                       # What write queue length does an incoming req see
system.mem_ctrls.wrQLenPdf::92                      0                       # What write queue length does an incoming req see
system.mem_ctrls.wrQLenPdf::93                      0                       # What write queue length does an incoming req see
system.mem_ctrls.wrQLenPdf::94                      0                       # What write queue length does an incoming req see
system.mem_ctrls.wrQLenPdf::95                      0                       # What write queue length does an incoming req see
system.mem_ctrls.wrQLenPdf::96                      0                       # What write queue length does an incoming req see
system.mem_ctrls.wrQLenPdf::97                      0                       # What write queue length does an incoming req see
system.mem_ctrls.wrQLenPdf::98                      0                       # What write queue length does an incoming req see
system.mem_ctrls.wrQLenPdf::99                      0                       # What write queue length does an incoming req see
system.mem_ctrls.wrQLenPdf::100                     0                       # What write queue length does an incoming req see
system.mem_ctrls.wrQLenPdf::101                     0                       # What write queue length does an incoming req see
system.mem_ctrls.wrQLenPdf::102                     0                       # What write queue length does an incoming req see
system.mem_ctrls.wrQLenPdf::103                     0                       # What write queue length does an incoming req see
system.mem_ctrls.wrQLenPdf::104                     0                       # What write queue length does an incoming req see
system.mem_ctrls.wrQLenPdf::105                     0                       # What write queue length does an incoming req see
system.mem_ctrls.wrQLenPdf::106                     0                       # What write queue length does an incoming req see
system.mem_ctrls.wrQLenPdf::107                     0                       # What write queue length does an incoming req see
system.mem_ctrls.wrQLenPdf::108                     0                       # What write queue length does an incoming req see
system.mem_ctrls.wrQLenPdf::109                     0                       # What write queue length does an incoming req see
system.mem_ctrls.wrQLenPdf::110                     0                       # What write queue length does an incoming req see
system.mem_ctrls.wrQLenPdf::111                     0                       # What write queue length does an incoming req see
system.mem_ctrls.wrQLenPdf::112                     0                       # What write queue length does an incoming req see
system.mem_ctrls.wrQLenPdf::113                     0                       # What write queue length does an incoming req see
system.mem_ctrls.wrQLenPdf::114                     0                       # What write queue length does an incoming req see
system.mem_ctrls.wrQLenPdf::115                     0                       # What write queue length does an incoming req see
system.mem_ctrls.wrQLenPdf::116                     0                       # What write queue length does an incoming req see
system.mem_ctrls.wrQLenPdf::117                     0                       # What write queue length does an incoming req see
system.mem_ctrls.wrQLenPdf::118                     0                       # What write queue length does an incoming req see
system.mem_ctrls.wrQLenPdf::119                     0                       # What write queue length does an incoming req see
system.mem_ctrls.wrQLenPdf::120                     0                       # What write queue length does an incoming req see
system.mem_ctrls.wrQLenPdf::121                     0                       # What write queue length does an incoming req see
system.mem_ctrls.wrQLenPdf::122                     0                       # What write queue length does an incoming req see
system.mem_ctrls.wrQLenPdf::123                     0                       # What write queue length does an incoming req see
system.mem_ctrls.wrQLenPdf::124                     0                       # What write queue length does an incoming req see
system.mem_ctrls.wrQLenPdf::125                     0                       # What write queue length does an incoming req see
system.mem_ctrls.wrQLenPdf::126                     0                       # What write queue length does an incoming req see
system.mem_ctrls.wrQLenPdf::127                     0                       # What write queue length does an incoming req see
system.mem_ctrls.totQLat                            0                       # Total ticks spent queuing
system.mem_ctrls.totMemAccLat                       0                       # Total ticks spent from burst creation until serviced by the DRAM
system.mem_ctrls.totBusLat                          0                       # Total ticks spent in databus transfers
system.mem_ctrls.avgQLat                          nan                       # Average queueing delay per DRAM burst
system.mem_ctrls.avgBusLat                        nan                       # Average bus latency per DRAM burst
system.mem_ctrls.avgMemAccLat                     nan                       # Average memory access latency per DRAM burst
system.mem_ctrls.avgRdBW                         0.00                       # Average DRAM read bandwidth in MiByte/s
system.mem_ctrls.avgWrBW                         0.00                       # Average achieved write bandwidth in MiByte/s
system.mem_ctrls.avgRdBWSys                      0.00                       # Average system read bandwidth in MiByte/s
system.mem_ctrls.avgWrBWSys                      0.00                       # Average system write bandwidth in MiByte/s
system.mem_ctrls.peakBW                      19207.00                       # Theoretical peak bandwidth in MiByte/s
system.mem_ctrls.busUtil                         0.00                       # Data bus utilization in percentage
system.mem_ctrls.busUtilRead                     0.00                       # Data bus utilization in percentage for reads
system.mem_ctrls.busUtilWrite                    0.00                       # Data bus utilization in percentage for writes
system.mem_ctrls.avgRdQLen                       0.00                       # Average read queue length when enqueuing
system.mem_ctrls.avgWrQLen                       0.00                       # Average write queue length when enqueuing
system.mem_ctrls.readRowHits                        0                       # Number of row buffer hits during reads
system.mem_ctrls.writeRowHits                       0                       # Number of row buffer hits during writes
system.mem_ctrls.readRowHitRate                   nan                       # Row buffer hit rate for reads
system.mem_ctrls.writeRowHitRate                  nan                       # Row buffer hit rate for writes
system.mem_ctrls.avgGap                           nan                       # Average gap between requests
system.mem_ctrls.pageHitRate                      nan                       # Row buffer hit rate, read and write combined
system.mem_ctrls_0.actEnergy                        0                       # Energy for activate commands per rank (pJ)
system.mem_ctrls_0.preEnergy                        0                       # Energy for precharge commands per rank (pJ)
system.mem_ctrls_0.readEnergy                       0                       # Energy for read commands per rank (pJ)
system.mem_ctrls_0.writeEnergy                      0                       # Energy for write commands per rank (pJ)
system.mem_ctrls_0.refreshEnergy                    0                       # Energy for refresh commands per rank (pJ)
system.mem_ctrls_0.actBackEnergy                    0                       # Energy for active background per rank (pJ)
system.mem_ctrls_0.preBackEnergy         246554923230.134399                       # Energy for precharge background per rank (pJ)
system.mem_ctrls_0.actPowerDownEnergy               0                       # Energy for active power-down per rank (pJ)
system.mem_ctrls_0.prePowerDownEnergy               0                       # Energy for precharge power-down per rank (pJ)
system.mem_ctrls_0.selfRefreshEnergy                0                       # Energy for self refresh per rank (pJ)
system.mem_ctrls_0.totalEnergy           246554923230.134399                       # Total energy per rank (pJ)
system.mem_ctrls_0.averagePower            163.200000                       # Core power per rank (mW)
system.mem_ctrls_0.totalIdleTime                    0                       # Total Idle time Per DRAM Rank
system.mem_ctrls_0.memoryStateTime::IDLE 1510753206000                       # Time in different power states
system.mem_ctrls_0.memoryStateTime::REF             0                       # Time in different power states
system.mem_ctrls_0.memoryStateTime::SREF            0                       # Time in different power states
system.mem_ctrls_0.memoryStateTime::PRE_PDN            0                       # Time in different power states
system.mem_ctrls_0.memoryStateTime::ACT             0                       # Time in different power states
system.mem_ctrls_0.memoryStateTime::ACT_PDN            0                       # Time in different power states
system.mem_ctrls_1.actEnergy                        0                       # Energy for activate commands per rank (pJ)
system.mem_ctrls_1.preEnergy                        0                       # Energy for precharge commands per rank (pJ)
system.mem_ctrls_1.readEnergy                       0                       # Energy for read commands per rank (pJ)
system.mem_ctrls_1.writeEnergy                      0                       # Energy for write commands per rank (pJ)
system.mem_ctrls_1.refreshEnergy                    0                       # Energy for refresh commands per rank (pJ)
system.mem_ctrls_1.actBackEnergy                    0                       # Energy for active background per rank (pJ)
system.mem_ctrls_1.preBackEnergy         246554923230.134399                       # Energy for precharge background per rank (pJ)
system.mem_ctrls_1.actPowerDownEnergy               0                       # Energy for active power-down per rank (pJ)
system.mem_ctrls_1.prePowerDownEnergy               0                       # Energy for precharge power-down per rank (pJ)
system.mem_ctrls_1.selfRefreshEnergy                0                       # Energy for self refresh per rank (pJ)
system.mem_ctrls_1.totalEnergy           246554923230.134399                       # Total energy per rank (pJ)
system.mem_ctrls_1.averagePower            163.200000                       # Core power per rank (mW)
system.mem_ctrls_1.totalIdleTime                    0                       # Total Idle time Per DRAM Rank
system.mem_ctrls_1.memoryStateTime::IDLE 1510753206000                       # Time in different power states
system.mem_ctrls_1.memoryStateTime::REF             0                       # Time in different power states
system.mem_ctrls_1.memoryStateTime::SREF            0                       # Time in different power states
system.mem_ctrls_1.memoryStateTime::PRE_PDN            0                       # Time in different power states
system.mem_ctrls_1.memoryStateTime::ACT             0                       # Time in different power states
system.mem_ctrls_1.memoryStateTime::ACT_PDN            0                       # Time in different power states
system.mem_ctrls_2.actEnergy                        0                       # Energy for activate commands per rank (pJ)
system.mem_ctrls_2.preEnergy                        0                       # Energy for precharge commands per rank (pJ)
system.mem_ctrls_2.readEnergy                       0                       # Energy for read commands per rank (pJ)
system.mem_ctrls_2.writeEnergy                      0                       # Energy for write commands per rank (pJ)
system.mem_ctrls_2.refreshEnergy                    0                       # Energy for refresh commands per rank (pJ)
system.mem_ctrls_2.actBackEnergy                    0                       # Energy for active background per rank (pJ)
system.mem_ctrls_2.preBackEnergy         246554923230.134399                       # Energy for precharge background per rank (pJ)
system.mem_ctrls_2.actPowerDownEnergy               0                       # Energy for active power-down per rank (pJ)
system.mem_ctrls_2.prePowerDownEnergy               0                       # Energy for precharge power-down per rank (pJ)
system.mem_ctrls_2.selfRefreshEnergy                0                       # Energy for self refresh per rank (pJ)
system.mem_ctrls_2.totalEnergy           246554923230.134399                       # Total energy per rank (pJ)
system.mem_ctrls_2.averagePower            163.200000                       # Core power per rank (mW)
system.mem_ctrls_2.totalIdleTime                    0                       # Total Idle time Per DRAM Rank
system.mem_ctrls_2.memoryStateTime::IDLE 1510753206000                       # Time in different power states
system.mem_ctrls_2.memoryStateTime::REF             0                       # Time in different power states
system.mem_ctrls_2.memoryStateTime::SREF            0                       # Time in different power states
system.mem_ctrls_2.memoryStateTime::PRE_PDN            0                       # Time in different power states
system.mem_ctrls_2.memoryStateTime::ACT             0                       # Time in different power states
system.mem_ctrls_2.memoryStateTime::ACT_PDN            0                       # Time in different power states
system.mem_ctrls_3.actEnergy                        0                       # Energy for activate commands per rank (pJ)
system.mem_ctrls_3.preEnergy                        0                       # Energy for precharge commands per rank (pJ)
system.mem_ctrls_3.readEnergy                       0                       # Energy for read commands per rank (pJ)
system.mem_ctrls_3.writeEnergy                      0                       # Energy for write commands per rank (pJ)
system.mem_ctrls_3.refreshEnergy                    0                       # Energy for refresh commands per rank (pJ)
system.mem_ctrls_3.actBackEnergy                    0                       # Energy for active background per rank (pJ)
system.mem_ctrls_3.preBackEnergy         246554923230.134399                       # Energy for precharge background per rank (pJ)
system.mem_ctrls_3.actPowerDownEnergy               0                       # Energy for active power-down per rank (pJ)
system.mem_ctrls_3.prePowerDownEnergy               0                       # Energy for precharge power-down per rank (pJ)
system.mem_ctrls_3.selfRefreshEnergy                0                       # Energy for self refresh per rank (pJ)
system.mem_ctrls_3.totalEnergy           246554923230.134399                       # Total energy per rank (pJ)
system.mem_ctrls_3.averagePower            163.200000                       # Core power per rank (mW)
system.mem_ctrls_3.totalIdleTime                    0                       # Total Idle time Per DRAM Rank
system.mem_ctrls_3.memoryStateTime::IDLE 1510753206000                       # Time in different power states
system.mem_ctrls_3.memoryStateTime::REF             0                       # Time in different power states
system.mem_ctrls_3.memoryStateTime::SREF            0                       # Time in different power states
system.mem_ctrls_3.memoryStateTime::PRE_PDN            0                       # Time in different power states
system.mem_ctrls_3.memoryStateTime::ACT             0                       # Time in different power states
system.mem_ctrls_3.memoryStateTime::ACT_PDN            0                       # Time in different power states
system.pwrStateResidencyTicks::UNDEFINED 1510753206000                       # Cumulative time (in ticks) in various power states
system.bridge.pwrStateResidencyTicks::UNDEFINED 1510753206000                       # Cumulative time (in ticks) in various power states
system.cf0.dma_read_full_pages                      1                       # Number of full page size DMA reads (not PRD).
system.cf0.dma_read_bytes                        4096                       # Number of bytes transfered via DMA reads (not PRD).
system.cf0.dma_read_txs                             1                       # Number of DMA read transactions (not PRD).
system.cf0.dma_write_full_pages                  2660                       # Number of full page size DMA writes.
system.cf0.dma_write_bytes                   10896384                       # Number of bytes transfered via DMA writes.
system.cf0.dma_write_txs                         2661                       # Number of DMA write transactions.
system.cpu_voltage_domain.voltage                   1                       # Voltage in Volts
system.cpu_clk_domain.clock                      1000                       # Clock period in ticks
system.cpu0.dstage2_mmu.stage2_tlb.walker.pwrStateResidencyTicks::UNDEFINED 1510753206000                       # Cumulative time (in ticks) in various power states
system.cpu0.dstage2_mmu.stage2_tlb.walker.walks            0                       # Table walker walks requested
system.cpu0.dstage2_mmu.stage2_tlb.walker.walkRequestOrigin_Requested::Data            0                       # Table walker requests started/completed, data/inst
system.cpu0.dstage2_mmu.stage2_tlb.walker.walkRequestOrigin_Requested::Inst            0                       # Table walker requests started/completed, data/inst
system.cpu0.dstage2_mmu.stage2_tlb.walker.walkRequestOrigin_Requested::total            0                       # Table walker requests started/completed, data/inst
system.cpu0.dstage2_mmu.stage2_tlb.walker.walkRequestOrigin_Completed::Data            0                       # Table walker requests started/completed, data/inst
system.cpu0.dstage2_mmu.stage2_tlb.walker.walkRequestOrigin_Completed::Inst            0                       # Table walker requests started/completed, data/inst
system.cpu0.dstage2_mmu.stage2_tlb.walker.walkRequestOrigin_Completed::total            0                       # Table walker requests started/completed, data/inst
system.cpu0.dstage2_mmu.stage2_tlb.walker.walkRequestOrigin::total            0                       # Table walker requests started/completed, data/inst
system.cpu0.dstage2_mmu.stage2_tlb.inst_hits            0                       # ITB inst hits
system.cpu0.dstage2_mmu.stage2_tlb.inst_misses            0                       # ITB inst misses
system.cpu0.dstage2_mmu.stage2_tlb.read_hits            0                       # DTB read hits
system.cpu0.dstage2_mmu.stage2_tlb.read_misses            0                       # DTB read misses
system.cpu0.dstage2_mmu.stage2_tlb.write_hits            0                       # DTB write hits
system.cpu0.dstage2_mmu.stage2_tlb.write_misses            0                       # DTB write misses
system.cpu0.dstage2_mmu.stage2_tlb.flush_tlb            0                       # Number of times complete TLB was flushed
system.cpu0.dstage2_mmu.stage2_tlb.flush_tlb_mva            0                       # Number of times TLB was flushed by MVA
system.cpu0.dstage2_mmu.stage2_tlb.flush_tlb_mva_asid            0                       # Number of times TLB was flushed by MVA & ASID
system.cpu0.dstage2_mmu.stage2_tlb.flush_tlb_asid            0                       # Number of times TLB was flushed by ASID
system.cpu0.dstage2_mmu.stage2_tlb.flush_entries            0                       # Number of entries that have been flushed from TLB
system.cpu0.dstage2_mmu.stage2_tlb.align_faults            0                       # Number of TLB faults due to alignment restrictions
system.cpu0.dstage2_mmu.stage2_tlb.prefetch_faults            0                       # Number of TLB faults due to prefetch
system.cpu0.dstage2_mmu.stage2_tlb.domain_faults            0                       # Number of TLB faults due to domain restrictions
system.cpu0.dstage2_mmu.stage2_tlb.perms_faults            0                       # Number of TLB faults due to permissions restrictions
system.cpu0.dstage2_mmu.stage2_tlb.read_accesses            0                       # DTB read accesses
system.cpu0.dstage2_mmu.stage2_tlb.write_accesses            0                       # DTB write accesses
system.cpu0.dstage2_mmu.stage2_tlb.inst_accesses            0                       # ITB inst accesses
system.cpu0.dstage2_mmu.stage2_tlb.hits             0                       # DTB hits
system.cpu0.dstage2_mmu.stage2_tlb.misses            0                       # DTB misses
system.cpu0.dstage2_mmu.stage2_tlb.accesses            0                       # DTB accesses
system.cpu0.dtb.walker.pwrStateResidencyTicks::UNDEFINED 1510753206000                       # Cumulative time (in ticks) in various power states
system.cpu0.dtb.walker.walks                    86005                       # Table walker walks requested
system.cpu0.dtb.walker.walksLong                86005                       # Table walker walks initiated with long descriptors
system.cpu0.dtb.walker.walkWaitTime::samples        86005                       # Table walker wait (enqueue to first request) latency
system.cpu0.dtb.walker.walkWaitTime::0          86005    100.00%    100.00% # Table walker wait (enqueue to first request) latency
system.cpu0.dtb.walker.walkWaitTime::total        86005                       # Table walker wait (enqueue to first request) latency
system.cpu0.dtb.walker.walksPending::samples      7276000                       # Table walker pending requests distribution
system.cpu0.dtb.walker.walksPending::0        7276000    100.00%    100.00% # Table walker pending requests distribution
system.cpu0.dtb.walker.walksPending::total      7276000                       # Table walker pending requests distribution
system.cpu0.dtb.walker.walkPageSizes::4K        78763     95.18%     95.18% # Table walker page sizes translated
system.cpu0.dtb.walker.walkPageSizes::2M         3559      4.30%     99.48% # Table walker page sizes translated
system.cpu0.dtb.walker.walkPageSizes::1G          430      0.52%    100.00% # Table walker page sizes translated
system.cpu0.dtb.walker.walkPageSizes::total        82752                       # Table walker page sizes translated
system.cpu0.dtb.walker.walkRequestOrigin_Requested::Data        86005                       # Table walker requests started/completed, data/inst
system.cpu0.dtb.walker.walkRequestOrigin_Requested::Inst            0                       # Table walker requests started/completed, data/inst
system.cpu0.dtb.walker.walkRequestOrigin_Requested::total        86005                       # Table walker requests started/completed, data/inst
system.cpu0.dtb.walker.walkRequestOrigin_Completed::Data        82752                       # Table walker requests started/completed, data/inst
system.cpu0.dtb.walker.walkRequestOrigin_Completed::Inst            0                       # Table walker requests started/completed, data/inst
system.cpu0.dtb.walker.walkRequestOrigin_Completed::total        82752                       # Table walker requests started/completed, data/inst
system.cpu0.dtb.walker.walkRequestOrigin::total       168757                       # Table walker requests started/completed, data/inst
system.cpu0.dtb.inst_hits                           0                       # ITB inst hits
system.cpu0.dtb.inst_misses                         0                       # ITB inst misses
system.cpu0.dtb.read_hits                    82011163                       # DTB read hits
system.cpu0.dtb.read_misses                     77375                       # DTB read misses
system.cpu0.dtb.write_hits                   72753099                       # DTB write hits
system.cpu0.dtb.write_misses                     8630                       # DTB write misses
system.cpu0.dtb.flush_tlb                           5                       # Number of times complete TLB was flushed
system.cpu0.dtb.flush_tlb_mva                       0                       # Number of times TLB was flushed by MVA
system.cpu0.dtb.flush_tlb_mva_asid               3693                       # Number of times TLB was flushed by MVA & ASID
system.cpu0.dtb.flush_tlb_asid                     76                       # Number of times TLB was flushed by ASID
system.cpu0.dtb.flush_entries                    5224                       # Number of entries that have been flushed from TLB
system.cpu0.dtb.align_faults                        0                       # Number of TLB faults due to alignment restrictions
system.cpu0.dtb.prefetch_faults                  6030                       # Number of TLB faults due to prefetch
system.cpu0.dtb.domain_faults                       0                       # Number of TLB faults due to domain restrictions
system.cpu0.dtb.perms_faults                     1560                       # Number of TLB faults due to permissions restrictions
system.cpu0.dtb.read_accesses                82088538                       # DTB read accesses
system.cpu0.dtb.write_accesses               72761729                       # DTB write accesses
system.cpu0.dtb.inst_accesses                       0                       # ITB inst accesses
system.cpu0.dtb.hits                        154764262                       # DTB hits
system.cpu0.dtb.misses                          86005                       # DTB misses
system.cpu0.dtb.accesses                    154850267                       # DTB accesses
system.cpu0.istage2_mmu.stage2_tlb.walker.pwrStateResidencyTicks::UNDEFINED 1510753206000                       # Cumulative time (in ticks) in various power states
system.cpu0.istage2_mmu.stage2_tlb.walker.walks            0                       # Table walker walks requested
system.cpu0.istage2_mmu.stage2_tlb.walker.walkRequestOrigin_Requested::Data            0                       # Table walker requests started/completed, data/inst
system.cpu0.istage2_mmu.stage2_tlb.walker.walkRequestOrigin_Requested::Inst            0                       # Table walker requests started/completed, data/inst
system.cpu0.istage2_mmu.stage2_tlb.walker.walkRequestOrigin_Requested::total            0                       # Table walker requests started/completed, data/inst
system.cpu0.istage2_mmu.stage2_tlb.walker.walkRequestOrigin_Completed::Data            0                       # Table walker requests started/completed, data/inst
system.cpu0.istage2_mmu.stage2_tlb.walker.walkRequestOrigin_Completed::Inst            0                       # Table walker requests started/completed, data/inst
system.cpu0.istage2_mmu.stage2_tlb.walker.walkRequestOrigin_Completed::total            0                       # Table walker requests started/completed, data/inst
system.cpu0.istage2_mmu.stage2_tlb.walker.walkRequestOrigin::total            0                       # Table walker requests started/completed, data/inst
system.cpu0.istage2_mmu.stage2_tlb.inst_hits            0                       # ITB inst hits
system.cpu0.istage2_mmu.stage2_tlb.inst_misses            0                       # ITB inst misses
system.cpu0.istage2_mmu.stage2_tlb.read_hits            0                       # DTB read hits
system.cpu0.istage2_mmu.stage2_tlb.read_misses            0                       # DTB read misses
system.cpu0.istage2_mmu.stage2_tlb.write_hits            0                       # DTB write hits
system.cpu0.istage2_mmu.stage2_tlb.write_misses            0                       # DTB write misses
system.cpu0.istage2_mmu.stage2_tlb.flush_tlb            0                       # Number of times complete TLB was flushed
system.cpu0.istage2_mmu.stage2_tlb.flush_tlb_mva            0                       # Number of times TLB was flushed by MVA
system.cpu0.istage2_mmu.stage2_tlb.flush_tlb_mva_asid            0                       # Number of times TLB was flushed by MVA & ASID
system.cpu0.istage2_mmu.stage2_tlb.flush_tlb_asid            0                       # Number of times TLB was flushed by ASID
system.cpu0.istage2_mmu.stage2_tlb.flush_entries            0                       # Number of entries that have been flushed from TLB
system.cpu0.istage2_mmu.stage2_tlb.align_faults            0                       # Number of TLB faults due to alignment restrictions
system.cpu0.istage2_mmu.stage2_tlb.prefetch_faults            0                       # Number of TLB faults due to prefetch
system.cpu0.istage2_mmu.stage2_tlb.domain_faults            0                       # Number of TLB faults due to domain restrictions
system.cpu0.istage2_mmu.stage2_tlb.perms_faults            0                       # Number of TLB faults due to permissions restrictions
system.cpu0.istage2_mmu.stage2_tlb.read_accesses            0                       # DTB read accesses
system.cpu0.istage2_mmu.stage2_tlb.write_accesses            0                       # DTB write accesses
system.cpu0.istage2_mmu.stage2_tlb.inst_accesses            0                       # ITB inst accesses
system.cpu0.istage2_mmu.stage2_tlb.hits             0                       # DTB hits
system.cpu0.istage2_mmu.stage2_tlb.misses            0                       # DTB misses
system.cpu0.istage2_mmu.stage2_tlb.accesses            0                       # DTB accesses
system.cpu0.itb.walker.pwrStateResidencyTicks::UNDEFINED 1510753206000                       # Cumulative time (in ticks) in various power states
system.cpu0.itb.walker.walks                    24962                       # Table walker walks requested
system.cpu0.itb.walker.walksLong                24962                       # Table walker walks initiated with long descriptors
system.cpu0.itb.walker.walkWaitTime::samples        24962                       # Table walker wait (enqueue to first request) latency
system.cpu0.itb.walker.walkWaitTime::0          24962    100.00%    100.00% # Table walker wait (enqueue to first request) latency
system.cpu0.itb.walker.walkWaitTime::total        24962                       # Table walker wait (enqueue to first request) latency
system.cpu0.itb.walker.walksPending::samples      7265000                       # Table walker pending requests distribution
system.cpu0.itb.walker.walksPending::0        7265000    100.00%    100.00% # Table walker pending requests distribution
system.cpu0.itb.walker.walksPending::total      7265000                       # Table walker pending requests distribution
system.cpu0.itb.walker.walkPageSizes::4K        23639     98.46%     98.46% # Table walker page sizes translated
system.cpu0.itb.walker.walkPageSizes::2M          368      1.53%     99.99% # Table walker page sizes translated
system.cpu0.itb.walker.walkPageSizes::1G            2      0.01%    100.00% # Table walker page sizes translated
system.cpu0.itb.walker.walkPageSizes::total        24009                       # Table walker page sizes translated
system.cpu0.itb.walker.walkRequestOrigin_Requested::Data            0                       # Table walker requests started/completed, data/inst
system.cpu0.itb.walker.walkRequestOrigin_Requested::Inst        24962                       # Table walker requests started/completed, data/inst
system.cpu0.itb.walker.walkRequestOrigin_Requested::total        24962                       # Table walker requests started/completed, data/inst
system.cpu0.itb.walker.walkRequestOrigin_Completed::Data            0                       # Table walker requests started/completed, data/inst
system.cpu0.itb.walker.walkRequestOrigin_Completed::Inst        24009                       # Table walker requests started/completed, data/inst
system.cpu0.itb.walker.walkRequestOrigin_Completed::total        24009                       # Table walker requests started/completed, data/inst
system.cpu0.itb.walker.walkRequestOrigin::total        48971                       # Table walker requests started/completed, data/inst
system.cpu0.itb.inst_hits                   472884495                       # ITB inst hits
system.cpu0.itb.inst_misses                     24962                       # ITB inst misses
system.cpu0.itb.read_hits                           0                       # DTB read hits
system.cpu0.itb.read_misses                         0                       # DTB read misses
system.cpu0.itb.write_hits                          0                       # DTB write hits
system.cpu0.itb.write_misses                        0                       # DTB write misses
system.cpu0.itb.flush_tlb                           5                       # Number of times complete TLB was flushed
system.cpu0.itb.flush_tlb_mva                       0                       # Number of times TLB was flushed by MVA
system.cpu0.itb.flush_tlb_mva_asid               3693                       # Number of times TLB was flushed by MVA & ASID
system.cpu0.itb.flush_tlb_asid                     76                       # Number of times TLB was flushed by ASID
system.cpu0.itb.flush_entries                    3011                       # Number of entries that have been flushed from TLB
system.cpu0.itb.align_faults                        0                       # Number of TLB faults due to alignment restrictions
system.cpu0.itb.prefetch_faults                     0                       # Number of TLB faults due to prefetch
system.cpu0.itb.domain_faults                       0                       # Number of TLB faults due to domain restrictions
system.cpu0.itb.perms_faults                        0                       # Number of TLB faults due to permissions restrictions
system.cpu0.itb.read_accesses                       0                       # DTB read accesses
system.cpu0.itb.write_accesses                      0                       # DTB write accesses
system.cpu0.itb.inst_accesses               472909457                       # ITB inst accesses
system.cpu0.itb.hits                        472884495                       # DTB hits
system.cpu0.itb.misses                          24962                       # DTB misses
system.cpu0.itb.accesses                    472909457                       # DTB accesses
system.cpu0.numPwrStateTransitions              24840                       # Number of power state transitions
system.cpu0.pwrStateClkGateDist::samples        12420                       # Distribution of time spent in the clock gated state
system.cpu0.pwrStateClkGateDist::mean    78207430.330757                       # Distribution of time spent in the clock gated state
system.cpu0.pwrStateClkGateDist::stdev   2223275684.544168                       # Distribution of time spent in the clock gated state
system.cpu0.pwrStateClkGateDist::1000-5e+10        12418     99.98%     99.98% # Distribution of time spent in the clock gated state
system.cpu0.pwrStateClkGateDist::5e+10-1e+11            1      0.01%     99.99% # Distribution of time spent in the clock gated state
system.cpu0.pwrStateClkGateDist::1.5e+11-2e+11            1      0.01%    100.00% # Distribution of time spent in the clock gated state
system.cpu0.pwrStateClkGateDist::min_value         1001                       # Distribution of time spent in the clock gated state
system.cpu0.pwrStateClkGateDist::max_value 199801857792                       # Distribution of time spent in the clock gated state
system.cpu0.pwrStateClkGateDist::total          12420                       # Distribution of time spent in the clock gated state
system.cpu0.pwrStateResidencyTicks::ON   539416921292                       # Cumulative time (in ticks) in various power states
system.cpu0.pwrStateResidencyTicks::CLK_GATED 971336284708                       # Cumulative time (in ticks) in various power states
system.cpu0.numCycles                      1510765627                       # number of cpu cycles simulated
system.cpu0.numWorkItemsStarted                     0                       # number of work items this cpu started
system.cpu0.numWorkItemsCompleted                   0                       # number of work items this cpu completed
system.cpu0.kern.inst.arm                           0                       # number of arm instructions executed
system.cpu0.kern.inst.quiesce                   12420                       # number of quiesce instructions executed
[...]
system.tol2bus2.snoop_filter.tot_snoops             0                       # Total number of snoops made to the snoop filter.
system.tol2bus2.snoop_filter.hit_single_snoops            0                       # Number of snoops hitting in the snoop filter with a single holder of the requested data.
system.tol2bus2.snoop_filter.hit_multi_snoops            0                       # Number of snoops hitting in the snoop filter with multiple (>1) holders of the requested data.
system.tol2bus2.pwrStateResidencyTicks::UNDEFINED 1510753206000                       # Cumulative time (in ticks) in various power states
system.tol2bus2.trans_dist::ReadReq                12                       # Transaction distribution
system.tol2bus2.trans_dist::ReadResp               12                       # Transaction distribution
system.tol2bus2.pkt_count_system.cpu2.icache.mem_side::system.l22.cpu_side           24                       # Packet count per connected master and slave (bytes)
system.tol2bus2.pkt_count::total                   24                       # Packet count per connected master and slave (bytes)
system.tol2bus2.pkt_size_system.cpu2.icache.mem_side::system.l22.cpu_side           48                       # Cumulative packet size per connected master and slave (bytes)
system.tol2bus2.pkt_size::total                    48                       # Cumulative packet size per connected master and slave (bytes)
system.tol2bus2.snoops                              0                       # Total snoops (count)
system.tol2bus2.snoopTraffic                        0                       # Total snoop traffic (bytes)
system.tol2bus2.snoop_fanout::samples              12                       # Request fanout histogram
system.tol2bus2.snoop_fanout::mean                  0                       # Request fanout histogram
system.tol2bus2.snoop_fanout::stdev                 0                       # Request fanout histogram
system.tol2bus2.snoop_fanout::underflows            0      0.00%      0.00% # Request fanout histogram
system.tol2bus2.snoop_fanout::0                    12    100.00%    100.00% # Request fanout histogram
system.tol2bus2.snoop_fanout::1                     0      0.00%    100.00% # Request fanout histogram
system.tol2bus2.snoop_fanout::2                     0      0.00%    100.00% # Request fanout histogram
system.tol2bus2.snoop_fanout::overflows             0      0.00%    100.00% # Request fanout histogram
system.tol2bus2.snoop_fanout::min_value             0                       # Request fanout histogram
system.tol2bus2.snoop_fanout::max_value             0                       # Request fanout histogram
system.tol2bus2.snoop_fanout::total                12                       # Request fanout histogram
system.tol2bus2.directResponses                     0                       # auxiliar stat for checking how reasonable wireless model is
system.tol2bus3.snoop_filter.tot_requests            0                       # Total number of requests made to the snoop filter.
system.tol2bus3.snoop_filter.hit_single_requests            0                       # Number of requests hitting in the snoop filter with a single holder of the requested data.
system.tol2bus3.snoop_filter.hit_multi_requests            0                       # Number of requests hitting in the snoop filter with multiple (>1) holders of the requested data.
system.tol2bus3.snoop_filter.tot_snoops             0                       # Total number of snoops made to the snoop filter.
system.tol2bus3.snoop_filter.hit_single_snoops            0                       # Number of snoops hitting in the snoop filter with a single holder of the requested data.
system.tol2bus3.snoop_filter.hit_multi_snoops            0                       # Number of snoops hitting in the snoop filter with multiple (>1) holders of the requested data.
system.tol2bus3.pwrStateResidencyTicks::UNDEFINED 1510753206000                       # Cumulative time (in ticks) in various power states
system.tol2bus3.trans_dist::ReadReq                12                       # Transaction distribution
system.tol2bus3.trans_dist::ReadResp               12                       # Transaction distribution
system.tol2bus3.pkt_count_system.cpu3.icache.mem_side::system.l23.cpu_side           24                       # Packet count per connected master and slave (bytes)
system.tol2bus3.pkt_count::total                   24                       # Packet count per connected master and slave (bytes)
system.tol2bus3.pkt_size_system.cpu3.icache.mem_side::system.l23.cpu_side           48                       # Cumulative packet size per connected master and slave (bytes)
system.tol2bus3.pkt_size::total                    48                       # Cumulative packet size per connected master and slave (bytes)
system.tol2bus3.snoops                              0                       # Total snoops (count)
system.tol2bus3.snoopTraffic                        0                       # Total snoop traffic (bytes)
system.tol2bus3.snoop_fanout::samples              12                       # Request fanout histogram
system.tol2bus3.snoop_fanout::mean                  0                       # Request fanout histogram
system.tol2bus3.snoop_fanout::stdev                 0                       # Request fanout histogram
system.tol2bus3.snoop_fanout::underflows            0      0.00%      0.00% # Request fanout histogram
system.tol2bus3.snoop_fanout::0                    12    100.00%    100.00% # Request fanout histogram
system.tol2bus3.snoop_fanout::1                     0      0.00%    100.00% # Request fanout histogram
system.tol2bus3.snoop_fanout::2                     0      0.00%    100.00% # Request fanout histogram
system.tol2bus3.snoop_fanout::overflows             0      0.00%    100.00% # Request fanout histogram
system.tol2bus3.snoop_fanout::min_value             0                       # Request fanout histogram
system.tol2bus3.snoop_fanout::max_value             0                       # Request fanout histogram
system.tol2bus3.snoop_fanout::total                12                       # Request fanout histogram
system.tol2bus3.directResponses                     0                       # auxiliar stat for checking how reasonable wireless model is
system.tol2bus4.snoop_filter.tot_requests            0                       # Total number of requests made to the snoop filter.
system.tol2bus4.snoop_filter.hit_single_requests            0                       # Number of requests hitting in the snoop filter with a single holder of the requested data.
system.tol2bus4.snoop_filter.hit_multi_requests            0                       # Number of requests hitting in the snoop filter with multiple (>1) holders of the requested data.
system.tol2bus4.snoop_filter.tot_snoops             0                       # Total number of snoops made to the snoop filter.
system.tol2bus4.snoop_filter.hit_single_snoops            0                       # Number of snoops hitting in the snoop filter with a single holder of the requested data.
system.tol2bus4.snoop_filter.hit_multi_snoops            0                       # Number of snoops hitting in the snoop filter with multiple (>1) holders of the requested data.
system.tol2bus4.pwrStateResidencyTicks::UNDEFINED 1510753206000                       # Cumulative time (in ticks) in various power states
system.tol2bus4.trans_dist::ReadReq                12                       # Transaction distribution
system.tol2bus4.trans_dist::ReadResp               12                       # Transaction distribution
system.tol2bus4.pkt_count_system.cpu4.icache.mem_side::system.l24.cpu_side           24                       # Packet count per connected master and slave (bytes)
system.tol2bus4.pkt_count::total                   24                       # Packet count per connected master and slave (bytes)
system.tol2bus4.pkt_size_system.cpu4.icache.mem_side::system.l24.cpu_side           48                       # Cumulative packet size per connected master and slave (bytes)
system.tol2bus4.pkt_size::total                    48                       # Cumulative packet size per connected master and slave (bytes)
system.tol2bus4.snoops                              0                       # Total snoops (count)
system.tol2bus4.snoopTraffic                        0                       # Total snoop traffic (bytes)
system.tol2bus4.snoop_fanout::samples              12                       # Request fanout histogram
system.tol2bus4.snoop_fanout::mean                  0                       # Request fanout histogram
system.tol2bus4.snoop_fanout::stdev                 0                       # Request fanout histogram
system.tol2bus4.snoop_fanout::underflows            0      0.00%      0.00% # Request fanout histogram
system.tol2bus4.snoop_fanout::0                    12    100.00%    100.00% # Request fanout histogram
system.tol2bus4.snoop_fanout::1                     0      0.00%    100.00% # Request fanout histogram
system.tol2bus4.snoop_fanout::2                     0      0.00%    100.00% # Request fanout histogram
system.tol2bus4.snoop_fanout::overflows             0      0.00%    100.00% # Request fanout histogram
system.tol2bus4.snoop_fanout::min_value             0                       # Request fanout histogram
system.tol2bus4.snoop_fanout::max_value             0                       # Request fanout histogram
system.tol2bus4.snoop_fanout::total                12                       # Request fanout histogram
system.tol2bus4.directResponses                     0                       # auxiliar stat for checking how reasonable wireless model is
system.tol2bus5.snoop_filter.tot_requests            0                       # Total number of requests made to the snoop filter.
system.tol2bus5.snoop_filter.hit_single_requests            0                       # Number of requests hitting in the snoop filter with a single holder of the requested data.
system.tol2bus5.snoop_filter.hit_multi_requests            0                       # Number of requests hitting in the snoop filter with multiple (>1) holders of the requested data.
system.tol2bus5.snoop_filter.tot_snoops             0                       # Total number of snoops made to the snoop filter.
system.tol2bus5.snoop_filter.hit_single_snoops            0                       # Number of snoops hitting in the snoop filter with a single holder of the requested data.
system.tol2bus5.snoop_filter.hit_multi_snoops            0                       # Number of snoops hitting in the snoop filter with multiple (>1) holders of the requested data.
system.tol2bus5.pwrStateResidencyTicks::UNDEFINED 1510753206000                       # Cumulative time (in ticks) in various power states
system.tol2bus5.trans_dist::ReadReq                12                       # Transaction distribution
system.tol2bus5.trans_dist::ReadResp               12                       # Transaction distribution
system.tol2bus5.pkt_count_system.cpu5.icache.mem_side::system.l25.cpu_side           24                       # Packet count per connected master and slave (bytes)
system.tol2bus5.pkt_count::total                   24                       # Packet count per connected master and slave (bytes)
system.tol2bus5.pkt_size_system.cpu5.icache.mem_side::system.l25.cpu_side           48                       # Cumulative packet size per connected master and slave (bytes)
system.tol2bus5.pkt_size::total                    48                       # Cumulative packet size per connected master and slave (bytes)
system.tol2bus5.snoops                              0                       # Total snoops (count)
system.tol2bus5.snoopTraffic                        0                       # Total snoop traffic (bytes)
system.tol2bus5.snoop_fanout::samples              12                       # Request fanout histogram
system.tol2bus5.snoop_fanout::mean                  0                       # Request fanout histogram
system.tol2bus5.snoop_fanout::stdev                 0                       # Request fanout histogram
system.tol2bus5.snoop_fanout::underflows            0      0.00%      0.00% # Request fanout histogram
system.tol2bus5.snoop_fanout::0                    12    100.00%    100.00% # Request fanout histogram
system.tol2bus5.snoop_fanout::1                     0      0.00%    100.00% # Request fanout histogram
system.tol2bus5.snoop_fanout::2                     0      0.00%    100.00% # Request fanout histogram
system.tol2bus5.snoop_fanout::overflows             0      0.00%    100.00% # Request fanout histogram
system.tol2bus5.snoop_fanout::min_value             0                       # Request fanout histogram
system.tol2bus5.snoop_fanout::max_value             0                       # Request fanout histogram
system.tol2bus5.snoop_fanout::total                12                       # Request fanout histogram
system.tol2bus5.directResponses                     0                       # auxiliar stat for checking how reasonable wireless model is
system.tol2bus6.snoop_filter.tot_requests            0                       # Total number of requests made to the snoop filter.
system.tol2bus6.snoop_filter.hit_single_requests            0                       # Number of requests hitting in the snoop filter with a single holder of the requested data.
system.tol2bus6.snoop_filter.hit_multi_requests            0                       # Number of requests hitting in the snoop filter with multiple (>1) holders of the requested data.
system.tol2bus6.snoop_filter.tot_snoops             0                       # Total number of snoops made to the snoop filter.
system.tol2bus6.snoop_filter.hit_single_snoops            0                       # Number of snoops hitting in the snoop filter with a single holder of the requested data.
system.tol2bus6.snoop_filter.hit_multi_snoops            0                       # Number of snoops hitting in the snoop filter with multiple (>1) holders of the requested data.
system.tol2bus6.pwrStateResidencyTicks::UNDEFINED 1510753206000                       # Cumulative time (in ticks) in various power states
system.tol2bus6.trans_dist::ReadReq                12                       # Transaction distribution
system.tol2bus6.trans_dist::ReadResp               12                       # Transaction distribution
system.tol2bus6.pkt_count_system.cpu6.icache.mem_side::system.l26.cpu_side           24                       # Packet count per connected master and slave (bytes)
system.tol2bus6.pkt_count::total                   24                       # Packet count per connected master and slave (bytes)
system.tol2bus6.pkt_size_system.cpu6.icache.mem_side::system.l26.cpu_side           48                       # Cumulative packet size per connected master and slave (bytes)
system.tol2bus6.pkt_size::total                    48                       # Cumulative packet size per connected master and slave (bytes)
system.tol2bus6.snoops                              0                       # Total snoops (count)
system.tol2bus6.snoopTraffic                        0                       # Total snoop traffic (bytes)
system.tol2bus6.snoop_fanout::samples              12                       # Request fanout histogram
system.tol2bus6.snoop_fanout::mean                  0                       # Request fanout histogram
system.tol2bus6.snoop_fanout::stdev                 0                       # Request fanout histogram
system.tol2bus6.snoop_fanout::underflows            0      0.00%      0.00% # Request fanout histogram
system.tol2bus6.snoop_fanout::0                    12    100.00%    100.00% # Request fanout histogram
system.tol2bus6.snoop_fanout::1                     0      0.00%    100.00% # Request fanout histogram
system.tol2bus6.snoop_fanout::2                     0      0.00%    100.00% # Request fanout histogram
system.tol2bus6.snoop_fanout::overflows             0      0.00%    100.00% # Request fanout histogram
system.tol2bus6.snoop_fanout::min_value             0                       # Request fanout histogram
system.tol2bus6.snoop_fanout::max_value             0                       # Request fanout histogram
system.tol2bus6.snoop_fanout::total                12                       # Request fanout histogram
system.tol2bus6.directResponses                     0                       # auxiliar stat for checking how reasonable wireless model is
system.tol2bus7.snoop_filter.tot_requests            0                       # Total number of requests made to the snoop filter.
system.tol2bus7.snoop_filter.hit_single_requests            0                       # Number of requests hitting in the snoop filter with a single holder of the requested data.
system.tol2bus7.snoop_filter.hit_multi_requests            0                       # Number of requests hitting in the snoop filter with multiple (>1) holders of the requested data.
system.tol2bus7.snoop_filter.tot_snoops             0                       # Total number of snoops made to the snoop filter.
system.tol2bus7.snoop_filter.hit_single_snoops            0                       # Number of snoops hitting in the snoop filter with a single holder of the requested data.
system.tol2bus7.snoop_filter.hit_multi_snoops            0                       # Number of snoops hitting in the snoop filter with multiple (>1) holders of the requested data.
system.tol2bus7.pwrStateResidencyTicks::UNDEFINED 1510753206000                       # Cumulative time (in ticks) in various power states
system.tol2bus7.trans_dist::ReadReq                12                       # Transaction distribution
system.tol2bus7.trans_dist::ReadResp               12                       # Transaction distribution
system.tol2bus7.pkt_count_system.cpu7.icache.mem_side::system.l27.cpu_side           24                       # Packet count per connected master and slave (bytes)
system.tol2bus7.pkt_count::total                   24                       # Packet count per connected master and slave (bytes)
system.tol2bus7.pkt_size_system.cpu7.icache.mem_side::system.l27.cpu_side           48                       # Cumulative packet size per connected master and slave (bytes)
system.tol2bus7.pkt_size::total                    48                       # Cumulative packet size per connected master and slave (bytes)
system.tol2bus7.snoops                              0                       # Total snoops (count)
system.tol2bus7.snoopTraffic                        0                       # Total snoop traffic (bytes)
system.tol2bus7.snoop_fanout::samples              12                       # Request fanout histogram
system.tol2bus7.snoop_fanout::mean                  0                       # Request fanout histogram
system.tol2bus7.snoop_fanout::stdev                 0                       # Request fanout histogram
system.tol2bus7.snoop_fanout::underflows            0      0.00%      0.00% # Request fanout histogram
system.tol2bus7.snoop_fanout::0                    12    100.00%    100.00% # Request fanout histogram
system.tol2bus7.snoop_fanout::1                     0      0.00%    100.00% # Request fanout histogram
system.tol2bus7.snoop_fanout::2                     0      0.00%    100.00% # Request fanout histogram
system.tol2bus7.snoop_fanout::overflows             0      0.00%    100.00% # Request fanout histogram
system.tol2bus7.snoop_fanout::min_value             0                       # Request fanout histogram
system.tol2bus7.snoop_fanout::max_value             0                       # Request fanout histogram
system.tol2bus7.snoop_fanout::total                12                       # Request fanout histogram
system.tol2bus7.directResponses                     0                       # auxiliar stat for checking how reasonable wireless model is

---------- End Simulation Statistics   ----------
